V1 1 0 0 2 10 0
R1 1 2 30
C1 2 0 15m
G1 2 0 5 4 3 4
dt 100u
dv 100u
di 10m
.tran 100m