V1 1 0 10 0 0 0
R1 1 2 2
C1 2 0 2.5u
dt 100n
dv 100u
di 10m
.tran 30u